/*--------------------------------*- C++ -*----------------------------------*\
| =========                 |                                                 |
| \\      /  F ield         | OpenFOAM: The Open Source CFD Toolbox           |
|  \\    /   O peration     | Version:  v1806                                 |
|   \\  /    A nd           | Web:      www.OpenFOAM.com                      |
|    \\/     M anipulation  |                                                 |
\*---------------------------------------------------------------------------*/
FoamFile
{
    version     2.0;
    format      ascii;
    class       featureEdgeMesh;
    location    "constant/triSurface";
    object      flange.eMesh;
}
// * * * * * * * * * * * * * * * * * * * * * * * * * * * * * * * * * * * * * //


// points:

232
(
(-5.31419 -1.16217 0.02)
(-5.31419 -1.16217 -0.02)
(-5.31419 2.38885 -0.02)
(-5.31419 2.38885 0.02)
(-5.38191 -1.07341 0.02)
(-5.39893 -1.00841 0.0205844)
(-5.40723 -0.941643 0.022236)
(-5.41002 -0.87539 0.024924)
(-5.40904 -0.808056 0.0286494)
(-5.38182 -0.665153 0.0393831)
(-5.35467 -0.522622 0.0543915)
(-5.70624 -0.871291 0.0299558)
(-5.63949 -0.933625 0.0252069)
(-5.80489 -0.753851 0.042302)
(-5.90324 -0.636774 0.0595591)
(-5.57271 -0.991019 0.0221394)
(-5.50611 -1.04312 0.0204912)
(-5.43992 -1.08959 0.02)
(-6.10462 -0.397031 0.1)
(-5.34446 -0.469001 0.0608522)
(-6.38918 -0.0492403 0.155064)
(-6.35631 -0.0784503 0.149489)
(-6.43534 -0.0129727 0.162253)
(-6.54345 0.0719762 0.180058)
(-6.65476 0.159434 0.2)
(-6.32232 -0.112192 0.143294)
(-6.18176 -0.288448 0.114815)
(-6.14453 -0.340835 0.107445)
(-6.28716 -0.151118 0.136462)
(-6.2521 -0.193891 0.129324)
(-6.21729 -0.239567 0.122108)
(-5.31341 -0.306014 0.0839411)
(-5.28257 -0.144092 0.113798)
(-5.26361 -0.100477 0.122817)
(-5.24426 -0.0638608 0.130723)
(-5.22495 -0.0343213 0.137338)
(-5.2056 -0.0105847 0.142823)
(-5.18612 0.00862335 0.147341)
(-5.16624 0.0246763 0.151138)
(-5.12448 0.0519352 0.157701)
(-5.04216 0.127927 0.177875)
(-4.96007 0.203698 0.2)
(-5.36878 -1.10325 0.02)
(-5.37648 -1.12886 0.02)
(-5.35312 -1.12801 0.02)
(-5.33492 -1.14765 0.02)
(-5.40904 -0.808056 -0.0286494)
(-5.41002 -0.87539 -0.024924)
(-5.38182 -0.665153 -0.0393831)
(-5.35467 -0.522622 -0.0543915)
(-5.40723 -0.941643 -0.022236)
(-5.70624 -0.871291 -0.0299558)
(-5.80489 -0.753851 -0.042302)
(-5.39893 -1.00841 -0.0205844)
(-5.38191 -1.07341 -0.02)
(-5.43992 -1.08959 -0.02)
(-5.50611 -1.04312 -0.0204912)
(-5.57271 -0.991019 -0.0221394)
(-5.63949 -0.933625 -0.0252069)
(-5.90324 -0.636774 -0.0595591)
(-5.34446 -0.469001 -0.0608522)
(-6.10462 -0.397031 -0.1)
(-6.14453 -0.340835 -0.107445)
(-6.18176 -0.288448 -0.114815)
(-6.21729 -0.239567 -0.122108)
(-6.43534 -0.0129727 -0.162253)
(-6.54345 0.0719762 -0.180058)
(-6.2521 -0.193891 -0.129324)
(-6.28716 -0.151118 -0.136462)
(-6.32232 -0.112192 -0.143294)
(-6.35631 -0.0784503 -0.149489)
(-6.38918 -0.0492403 -0.155064)
(-6.65476 0.159434 -0.2)
(-5.28257 -0.144092 -0.113798)
(-5.31341 -0.306014 -0.0839411)
(-5.26361 -0.100477 -0.122817)
(-5.24426 -0.0638608 -0.130723)
(-5.22495 -0.0343213 -0.137338)
(-5.2056 -0.0105847 -0.142823)
(-5.18612 0.00862335 -0.147341)
(-5.16624 0.0246763 -0.151138)
(-4.96007 0.203698 -0.2)
(-5.04216 0.127927 -0.177875)
(-5.12448 0.0519352 -0.157701)
(-6.76226 0.613341 -0.2)
(-6.76401 0.535738 -0.2)
(-6.76401 0.535738 0.2)
(-6.76226 0.613341 0.2)
(-6.76131 0.464261 -0.2)
(-6.76131 0.464261 0.2)
(-6.75418 0.398905 -0.2)
(-6.75418 0.398905 0.2)
(-6.74263 0.339624 -0.2)
(-6.74263 0.339624 0.2)
(-6.72674 0.286309 -0.2)
(-6.72674 0.286309 0.2)
(-6.70664 0.238752 -0.2)
(-6.70664 0.238752 0.2)
(-6.68254 0.196623 -0.2)
(-6.68254 0.196623 0.2)
(-4.94237 0.239215 -0.2)
(-4.94237 0.239215 0.2)
(-4.92719 0.279093 -0.2)
(-4.92719 0.279093 0.2)
(-4.91475 0.323437 -0.2)
(-4.91475 0.323437 0.2)
(-4.90518 0.372308 -0.2)
(-4.90518 0.372308 0.2)
(-4.89857 0.425733 -0.2)
(-4.89857 0.425733 0.2)
(-4.89497 0.483719 -0.2)
(-4.89497 0.483719 0.2)
(-4.8944 0.546259 -0.2)
(-4.8944 0.546259 0.2)
(-4.89684 0.613341 -0.2)
(-4.89684 0.613341 0.2)
(-5.37648 -1.12886 -0.02)
(-5.33492 -1.14765 -0.02)
(-5.35312 -1.12801 -0.02)
(-5.36878 -1.10325 -0.02)
(-5.38191 2.30009 -0.02)
(-5.39893 2.23509 -0.0205844)
(-5.40723 2.16833 -0.022236)
(-5.41002 2.10207 -0.024924)
(-5.40904 2.03474 -0.0286494)
(-5.38182 1.89184 -0.0393831)
(-5.35467 1.7493 -0.0543915)
(-5.70624 2.09797 -0.0299558)
(-5.63949 2.16031 -0.0252069)
(-5.80489 1.98053 -0.042302)
(-5.90324 1.86346 -0.0595591)
(-5.57271 2.2177 -0.0221394)
(-5.50611 2.26981 -0.0204912)
(-5.43992 2.31627 -0.02)
(-6.10462 1.62371 -0.1)
(-5.34446 1.69568 -0.0608522)
(-6.38918 1.27592 -0.155064)
(-6.35631 1.30513 -0.149489)
(-6.43534 1.23966 -0.162253)
(-6.54345 1.15471 -0.180058)
(-6.65476 1.06725 -0.2)
(-6.32232 1.33887 -0.143294)
(-6.18176 1.51513 -0.114815)
(-6.14453 1.56752 -0.107445)
(-6.28716 1.3778 -0.136462)
(-6.2521 1.42057 -0.129324)
(-6.21729 1.46625 -0.122108)
(-5.31341 1.5327 -0.0839411)
(-5.28257 1.37077 -0.113798)
(-5.26361 1.32716 -0.122817)
(-5.24426 1.29054 -0.130723)
(-5.22495 1.261 -0.137338)
(-5.2056 1.23727 -0.142823)
(-5.18612 1.21806 -0.147341)
(-5.16624 1.20201 -0.151138)
(-5.12448 1.17475 -0.157701)
(-5.04216 1.09876 -0.177875)
(-4.96007 1.02298 -0.2)
(-6.76401 0.690945 -0.2)
(-6.76131 0.762421 -0.2)
(-6.75418 0.827778 -0.2)
(-6.74263 0.887058 -0.2)
(-6.72674 0.940374 -0.2)
(-6.70664 0.987931 -0.2)
(-6.68254 1.03006 -0.2)
(-4.89497 0.742963 -0.2)
(-4.8944 0.680424 -0.2)
(-4.94237 0.987468 -0.2)
(-4.92719 0.94759 -0.2)
(-4.91475 0.903245 -0.2)
(-4.90518 0.854375 -0.2)
(-4.89857 0.800949 -0.2)
(-5.36878 2.32994 -0.02)
(-5.37648 2.35555 -0.02)
(-5.35312 2.35469 -0.02)
(-5.33492 2.37433 -0.02)
(-5.40904 2.03474 0.0286494)
(-5.41002 2.10207 0.024924)
(-5.38182 1.89184 0.0393831)
(-5.35467 1.7493 0.0543915)
(-5.40723 2.16833 0.022236)
(-5.70624 2.09797 0.0299558)
(-5.80489 1.98053 0.042302)
(-5.39893 2.23509 0.0205844)
(-5.38191 2.30009 0.02)
(-5.43992 2.31627 0.02)
(-5.50611 2.26981 0.0204912)
(-5.57271 2.2177 0.0221394)
(-5.63949 2.16031 0.0252069)
(-5.90324 1.86346 0.0595591)
(-5.34446 1.69568 0.0608522)
(-6.10462 1.62371 0.1)
(-6.14453 1.56752 0.107445)
(-6.18176 1.51513 0.114815)
(-6.21729 1.46625 0.122108)
(-6.43534 1.23966 0.162253)
(-6.54345 1.15471 0.180058)
(-6.2521 1.42057 0.129324)
(-6.28716 1.3778 0.136462)
(-6.32232 1.33887 0.143294)
(-6.35631 1.30513 0.149489)
(-6.38918 1.27592 0.155064)
(-6.65476 1.06725 0.2)
(-5.28257 1.37077 0.113798)
(-5.31341 1.5327 0.0839411)
(-5.26361 1.32716 0.122817)
(-5.24426 1.29054 0.130723)
(-5.22495 1.261 0.137338)
(-5.2056 1.23727 0.142823)
(-5.18612 1.21806 0.147341)
(-5.16624 1.20201 0.151138)
(-4.96007 1.02298 0.2)
(-5.04216 1.09876 0.177875)
(-5.12448 1.17475 0.157701)
(-6.76401 0.690945 0.2)
(-6.76131 0.762421 0.2)
(-6.75418 0.827778 0.2)
(-6.74263 0.887058 0.2)
(-6.72674 0.940374 0.2)
(-6.70664 0.987931 0.2)
(-6.68254 1.03006 0.2)
(-4.94237 0.987468 0.2)
(-4.92719 0.94759 0.2)
(-4.91475 0.903245 0.2)
(-4.90518 0.854375 0.2)
(-4.89857 0.800949 0.2)
(-4.89497 0.742963 0.2)
(-4.8944 0.680424 0.2)
(-5.37648 2.35555 0.02)
(-5.33492 2.37433 0.02)
(-5.35312 2.35469 0.02)
(-5.36878 2.32994 0.02)
)


// edges:

234
(
(4 5)
(5 6)
(6 7)
(7 8)
(8 9)
(9 10)
(11 12)
(13 11)
(14 13)
(12 15)
(15 16)
(16 17)
(18 14)
(10 19)
(20 21)
(22 20)
(23 22)
(24 23)
(21 25)
(26 27)
(25 28)
(28 29)
(29 30)
(30 26)
(27 18)
(19 31)
(31 32)
(32 33)
(33 34)
(34 35)
(35 36)
(36 37)
(37 38)
(38 39)
(39 40)
(40 41)
(42 4)
(17 43)
(44 42)
(45 44)
(43 0)
(0 45)
(46 47)
(48 46)
(49 48)
(47 50)
(51 52)
(50 53)
(53 54)
(55 56)
(56 57)
(57 58)
(58 51)
(52 59)
(60 49)
(59 61)
(61 62)
(62 63)
(63 64)
(65 66)
(64 67)
(67 68)
(68 69)
(69 70)
(70 71)
(71 65)
(66 72)
(73 74)
(75 73)
(76 75)
(77 76)
(78 77)
(79 78)
(80 79)
(81 82)
(74 60)
(82 83)
(83 80)
(84 85)
(86 87)
(85 88)
(89 86)
(88 90)
(91 89)
(90 92)
(93 91)
(92 94)
(95 93)
(94 96)
(97 95)
(96 98)
(99 97)
(98 72)
(24 99)
(81 100)
(101 41)
(100 102)
(103 101)
(102 104)
(105 103)
(104 106)
(107 105)
(106 108)
(109 107)
(108 110)
(111 109)
(110 112)
(113 111)
(112 114)
(115 113)
(55 116)
(116 1)
(1 0)
(1 117)
(117 118)
(118 119)
(119 54)
(120 121)
(121 122)
(122 123)
(123 124)
(124 125)
(125 126)
(127 128)
(129 127)
(130 129)
(128 131)
(131 132)
(132 133)
(134 130)
(126 135)
(136 137)
(138 136)
(139 138)
(140 139)
(137 141)
(142 143)
(141 144)
(144 145)
(145 146)
(146 142)
(143 134)
(135 147)
(147 148)
(148 149)
(149 150)
(150 151)
(151 152)
(152 153)
(153 154)
(154 155)
(155 156)
(156 157)
(84 158)
(158 159)
(159 160)
(160 161)
(161 162)
(162 163)
(163 164)
(164 140)
(165 166)
(166 114)
(157 167)
(167 168)
(168 169)
(169 170)
(170 171)
(171 165)
(172 120)
(133 173)
(174 172)
(175 174)
(173 2)
(2 175)
(176 177)
(178 176)
(179 178)
(177 180)
(181 182)
(180 183)
(183 184)
(185 186)
(186 187)
(187 188)
(188 181)
(182 189)
(190 179)
(189 191)
(191 192)
(192 193)
(193 194)
(195 196)
(194 197)
(197 198)
(198 199)
(199 200)
(200 201)
(201 195)
(196 202)
(203 204)
(205 203)
(206 205)
(207 206)
(208 207)
(209 208)
(210 209)
(211 212)
(204 190)
(212 213)
(213 210)
(87 214)
(214 215)
(215 216)
(216 217)
(217 218)
(218 219)
(219 220)
(220 202)
(211 221)
(221 222)
(222 223)
(223 224)
(224 225)
(225 226)
(226 227)
(227 115)
(185 228)
(228 3)
(3 2)
(3 229)
(229 230)
(230 231)
(231 184)
)

// * * * * * * * * * * * * * * * * * * * * * * * * * * * * * * * * * * * * * //


// ************************************************************************* //
