/*--------------------------------*- C++ -*----------------------------------*\
| =========                 |                                                 |
| \\      /  F ield         | OpenFOAM: The Open Source CFD Toolbox           |
|  \\    /   O peration     | Version:  v1806                                 |
|   \\  /    A nd           | Web:      www.OpenFOAM.com                      |
|    \\/     M anipulation  |                                                 |
\*---------------------------------------------------------------------------*/
FoamFile
{
    version     2.0;
    format      ascii;
    class       extendedFeatureEdgeMesh;
    location    "constant/extendedFeatureEdgeMesh";
    object      flange.extendedFeatureEdgeMesh;
}
// * * * * * * * * * * * * * * * * * * * * * * * * * * * * * * * * * * * * * //

// points

232
(
(-5.31419 -1.16217 0.02)
(-5.31419 -1.16217 -0.02)
(-5.31419 2.38885 -0.02)
(-5.31419 2.38885 0.02)
(-5.38191 -1.07341 0.02)
(-5.39893 -1.00841 0.0205844)
(-5.40723 -0.941643 0.022236)
(-5.41002 -0.87539 0.024924)
(-5.40904 -0.808056 0.0286494)
(-5.38182 -0.665153 0.0393831)
(-5.35467 -0.522622 0.0543915)
(-5.70624 -0.871291 0.0299558)
(-5.63949 -0.933625 0.0252069)
(-5.80489 -0.753851 0.042302)
(-5.90324 -0.636774 0.0595591)
(-5.57271 -0.991019 0.0221394)
(-5.50611 -1.04312 0.0204912)
(-5.43992 -1.08959 0.02)
(-6.10462 -0.397031 0.1)
(-5.34446 -0.469001 0.0608522)
(-6.38918 -0.0492403 0.155064)
(-6.35631 -0.0784503 0.149489)
(-6.43534 -0.0129727 0.162253)
(-6.54345 0.0719762 0.180058)
(-6.65476 0.159434 0.2)
(-6.32232 -0.112192 0.143294)
(-6.18176 -0.288448 0.114815)
(-6.14453 -0.340835 0.107445)
(-6.28716 -0.151118 0.136462)
(-6.2521 -0.193891 0.129324)
(-6.21729 -0.239567 0.122108)
(-5.31341 -0.306014 0.0839411)
(-5.28257 -0.144092 0.113798)
(-5.26361 -0.100477 0.122817)
(-5.24426 -0.0638608 0.130723)
(-5.22495 -0.0343213 0.137338)
(-5.2056 -0.0105847 0.142823)
(-5.18612 0.00862335 0.147341)
(-5.16624 0.0246763 0.151138)
(-5.12448 0.0519352 0.157701)
(-5.04216 0.127927 0.177875)
(-4.96007 0.203698 0.2)
(-5.36878 -1.10325 0.02)
(-5.37648 -1.12886 0.02)
(-5.35312 -1.12801 0.02)
(-5.33492 -1.14765 0.02)
(-5.40904 -0.808056 -0.0286494)
(-5.41002 -0.87539 -0.024924)
(-5.38182 -0.665153 -0.0393831)
(-5.35467 -0.522622 -0.0543915)
(-5.40723 -0.941643 -0.022236)
(-5.70624 -0.871291 -0.0299558)
(-5.80489 -0.753851 -0.042302)
(-5.39893 -1.00841 -0.0205844)
(-5.38191 -1.07341 -0.02)
(-5.43992 -1.08959 -0.02)
(-5.50611 -1.04312 -0.0204912)
(-5.57271 -0.991019 -0.0221394)
(-5.63949 -0.933625 -0.0252069)
(-5.90324 -0.636774 -0.0595591)
(-5.34446 -0.469001 -0.0608522)
(-6.10462 -0.397031 -0.1)
(-6.14453 -0.340835 -0.107445)
(-6.18176 -0.288448 -0.114815)
(-6.21729 -0.239567 -0.122108)
(-6.43534 -0.0129727 -0.162253)
(-6.54345 0.0719762 -0.180058)
(-6.2521 -0.193891 -0.129324)
(-6.28716 -0.151118 -0.136462)
(-6.32232 -0.112192 -0.143294)
(-6.35631 -0.0784503 -0.149489)
(-6.38918 -0.0492403 -0.155064)
(-6.65476 0.159434 -0.2)
(-5.28257 -0.144092 -0.113798)
(-5.31341 -0.306014 -0.0839411)
(-5.26361 -0.100477 -0.122817)
(-5.24426 -0.0638608 -0.130723)
(-5.22495 -0.0343213 -0.137338)
(-5.2056 -0.0105847 -0.142823)
(-5.18612 0.00862335 -0.147341)
(-5.16624 0.0246763 -0.151138)
(-4.96007 0.203698 -0.2)
(-5.04216 0.127927 -0.177875)
(-5.12448 0.0519352 -0.157701)
(-6.76226 0.613341 -0.2)
(-6.76401 0.535738 -0.2)
(-6.76401 0.535738 0.2)
(-6.76226 0.613341 0.2)
(-6.76131 0.464261 -0.2)
(-6.76131 0.464261 0.2)
(-6.75418 0.398905 -0.2)
(-6.75418 0.398905 0.2)
(-6.74263 0.339624 -0.2)
(-6.74263 0.339624 0.2)
(-6.72674 0.286309 -0.2)
(-6.72674 0.286309 0.2)
(-6.70664 0.238752 -0.2)
(-6.70664 0.238752 0.2)
(-6.68254 0.196623 -0.2)
(-6.68254 0.196623 0.2)
(-4.94237 0.239215 -0.2)
(-4.94237 0.239215 0.2)
(-4.92719 0.279093 -0.2)
(-4.92719 0.279093 0.2)
(-4.91475 0.323437 -0.2)
(-4.91475 0.323437 0.2)
(-4.90518 0.372308 -0.2)
(-4.90518 0.372308 0.2)
(-4.89857 0.425733 -0.2)
(-4.89857 0.425733 0.2)
(-4.89497 0.483719 -0.2)
(-4.89497 0.483719 0.2)
(-4.8944 0.546259 -0.2)
(-4.8944 0.546259 0.2)
(-4.89684 0.613341 -0.2)
(-4.89684 0.613341 0.2)
(-5.37648 -1.12886 -0.02)
(-5.33492 -1.14765 -0.02)
(-5.35312 -1.12801 -0.02)
(-5.36878 -1.10325 -0.02)
(-5.38191 2.30009 -0.02)
(-5.39893 2.23509 -0.0205844)
(-5.40723 2.16833 -0.022236)
(-5.41002 2.10207 -0.024924)
(-5.40904 2.03474 -0.0286494)
(-5.38182 1.89184 -0.0393831)
(-5.35467 1.7493 -0.0543915)
(-5.70624 2.09797 -0.0299558)
(-5.63949 2.16031 -0.0252069)
(-5.80489 1.98053 -0.042302)
(-5.90324 1.86346 -0.0595591)
(-5.57271 2.2177 -0.0221394)
(-5.50611 2.26981 -0.0204912)
(-5.43992 2.31627 -0.02)
(-6.10462 1.62371 -0.1)
(-5.34446 1.69568 -0.0608522)
(-6.38918 1.27592 -0.155064)
(-6.35631 1.30513 -0.149489)
(-6.43534 1.23966 -0.162253)
(-6.54345 1.15471 -0.180058)
(-6.65476 1.06725 -0.2)
(-6.32232 1.33887 -0.143294)
(-6.18176 1.51513 -0.114815)
(-6.14453 1.56752 -0.107445)
(-6.28716 1.3778 -0.136462)
(-6.2521 1.42057 -0.129324)
(-6.21729 1.46625 -0.122108)
(-5.31341 1.5327 -0.0839411)
(-5.28257 1.37077 -0.113798)
(-5.26361 1.32716 -0.122817)
(-5.24426 1.29054 -0.130723)
(-5.22495 1.261 -0.137338)
(-5.2056 1.23727 -0.142823)
(-5.18612 1.21806 -0.147341)
(-5.16624 1.20201 -0.151138)
(-5.12448 1.17475 -0.157701)
(-5.04216 1.09876 -0.177875)
(-4.96007 1.02298 -0.2)
(-6.76401 0.690945 -0.2)
(-6.76131 0.762421 -0.2)
(-6.75418 0.827778 -0.2)
(-6.74263 0.887058 -0.2)
(-6.72674 0.940374 -0.2)
(-6.70664 0.987931 -0.2)
(-6.68254 1.03006 -0.2)
(-4.89497 0.742963 -0.2)
(-4.8944 0.680424 -0.2)
(-4.94237 0.987468 -0.2)
(-4.92719 0.94759 -0.2)
(-4.91475 0.903245 -0.2)
(-4.90518 0.854375 -0.2)
(-4.89857 0.800949 -0.2)
(-5.36878 2.32994 -0.02)
(-5.37648 2.35555 -0.02)
(-5.35312 2.35469 -0.02)
(-5.33492 2.37433 -0.02)
(-5.40904 2.03474 0.0286494)
(-5.41002 2.10207 0.024924)
(-5.38182 1.89184 0.0393831)
(-5.35467 1.7493 0.0543915)
(-5.40723 2.16833 0.022236)
(-5.70624 2.09797 0.0299558)
(-5.80489 1.98053 0.042302)
(-5.39893 2.23509 0.0205844)
(-5.38191 2.30009 0.02)
(-5.43992 2.31627 0.02)
(-5.50611 2.26981 0.0204912)
(-5.57271 2.2177 0.0221394)
(-5.63949 2.16031 0.0252069)
(-5.90324 1.86346 0.0595591)
(-5.34446 1.69568 0.0608522)
(-6.10462 1.62371 0.1)
(-6.14453 1.56752 0.107445)
(-6.18176 1.51513 0.114815)
(-6.21729 1.46625 0.122108)
(-6.43534 1.23966 0.162253)
(-6.54345 1.15471 0.180058)
(-6.2521 1.42057 0.129324)
(-6.28716 1.3778 0.136462)
(-6.32232 1.33887 0.143294)
(-6.35631 1.30513 0.149489)
(-6.38918 1.27592 0.155064)
(-6.65476 1.06725 0.2)
(-5.28257 1.37077 0.113798)
(-5.31341 1.5327 0.0839411)
(-5.26361 1.32716 0.122817)
(-5.24426 1.29054 0.130723)
(-5.22495 1.261 0.137338)
(-5.2056 1.23727 0.142823)
(-5.18612 1.21806 0.147341)
(-5.16624 1.20201 0.151138)
(-4.96007 1.02298 0.2)
(-5.04216 1.09876 0.177875)
(-5.12448 1.17475 0.157701)
(-6.76401 0.690945 0.2)
(-6.76131 0.762421 0.2)
(-6.75418 0.827778 0.2)
(-6.74263 0.887058 0.2)
(-6.72674 0.940374 0.2)
(-6.70664 0.987931 0.2)
(-6.68254 1.03006 0.2)
(-4.94237 0.987468 0.2)
(-4.92719 0.94759 0.2)
(-4.91475 0.903245 0.2)
(-4.90518 0.854375 0.2)
(-4.89857 0.800949 0.2)
(-4.89497 0.742963 0.2)
(-4.8944 0.680424 0.2)
(-5.37648 2.35555 0.02)
(-5.33492 2.37433 0.02)
(-5.35312 2.35469 0.02)
(-5.36878 2.32994 0.02)
)

// edges

234
(
(4 5)
(5 6)
(6 7)
(7 8)
(8 9)
(9 10)
(11 12)
(13 11)
(14 13)
(12 15)
(15 16)
(16 17)
(18 14)
(10 19)
(20 21)
(22 20)
(23 22)
(24 23)
(21 25)
(26 27)
(25 28)
(28 29)
(29 30)
(30 26)
(27 18)
(19 31)
(31 32)
(32 33)
(33 34)
(34 35)
(35 36)
(36 37)
(37 38)
(38 39)
(39 40)
(40 41)
(42 4)
(17 43)
(44 42)
(45 44)
(43 0)
(0 45)
(46 47)
(48 46)
(49 48)
(47 50)
(51 52)
(50 53)
(53 54)
(55 56)
(56 57)
(57 58)
(58 51)
(52 59)
(60 49)
(59 61)
(61 62)
(62 63)
(63 64)
(65 66)
(64 67)
(67 68)
(68 69)
(69 70)
(70 71)
(71 65)
(66 72)
(73 74)
(75 73)
(76 75)
(77 76)
(78 77)
(79 78)
(80 79)
(81 82)
(74 60)
(82 83)
(83 80)
(84 85)
(86 87)
(85 88)
(89 86)
(88 90)
(91 89)
(90 92)
(93 91)
(92 94)
(95 93)
(94 96)
(97 95)
(96 98)
(99 97)
(98 72)
(24 99)
(81 100)
(101 41)
(100 102)
(103 101)
(102 104)
(105 103)
(104 106)
(107 105)
(106 108)
(109 107)
(108 110)
(111 109)
(110 112)
(113 111)
(112 114)
(115 113)
(55 116)
(116 1)
(1 0)
(1 117)
(117 118)
(118 119)
(119 54)
(120 121)
(121 122)
(122 123)
(123 124)
(124 125)
(125 126)
(127 128)
(129 127)
(130 129)
(128 131)
(131 132)
(132 133)
(134 130)
(126 135)
(136 137)
(138 136)
(139 138)
(140 139)
(137 141)
(142 143)
(141 144)
(144 145)
(145 146)
(146 142)
(143 134)
(135 147)
(147 148)
(148 149)
(149 150)
(150 151)
(151 152)
(152 153)
(153 154)
(154 155)
(155 156)
(156 157)
(84 158)
(158 159)
(159 160)
(160 161)
(161 162)
(162 163)
(163 164)
(164 140)
(165 166)
(166 114)
(157 167)
(167 168)
(168 169)
(169 170)
(170 171)
(171 165)
(172 120)
(133 173)
(174 172)
(175 174)
(173 2)
(2 175)
(176 177)
(178 176)
(179 178)
(177 180)
(181 182)
(180 183)
(183 184)
(185 186)
(186 187)
(187 188)
(188 181)
(182 189)
(190 179)
(189 191)
(191 192)
(192 193)
(193 194)
(195 196)
(194 197)
(197 198)
(198 199)
(199 200)
(200 201)
(201 195)
(196 202)
(203 204)
(205 203)
(206 205)
(207 206)
(208 207)
(209 208)
(210 209)
(211 212)
(204 190)
(212 213)
(213 210)
(87 214)
(214 215)
(215 216)
(216 217)
(217 218)
(218 219)
(219 220)
(220 202)
(211 221)
(221 222)
(222 223)
(223 224)
(224 225)
(225 226)
(226 227)
(227 115)
(185 228)
(228 3)
(3 2)
(3 229)
(229 230)
(230 231)
(231 184)
)

// concaveStart mixedStart nonFeatureStart
4 4 4
// internalStart flatStart openStart multipleStart
234 234 234 234
// normals

460
(
(0.00555432 -0.0075357 0.999956)
(0.967392 0.253285 0)
(0.00330735 -0.0243196 0.999699)
(0.992364 0.123347 0)
(0.0290037 -0.0393027 0.998806)
(0.999117 0.0420229 0)
(0.0162722 -0.0554706 0.998328)
(0.999895 -0.0144948 0)
(0.0162919 -0.0779765 0.996822)
(0.982338 -0.187113 0)
(0.0319859 -0.110691 0.99334)
(0.982339 -0.187112 0)
(0.0168888 -0.0579579 0.998176)
(-0.682505 -0.73088 -0)
(0.0266753 -0.0823266 0.996248)
(-0.765705 -0.643192 0)
(0.0342293 -0.117539 0.992478)
(-0.765705 -0.643192 0)
(-0.0582062 -0.120691 0.990982)
(-0.651788 -0.758401 -0)
(0.0225547 -0.00279821 0.999742)
(-0.616204 -0.787587 -0)
(0.00092864 -0.00924753 0.999957)
(-0.574524 -0.818488 -0)
(0.0408433 -0.132741 0.990309)
(-0.765705 -0.643192 0)
(0.0351042 -0.126138 0.991391)
(0.982339 -0.187111 0)
(0.0128034 -0.173559 0.98474)
(-0.664311 -0.747457 -2.02272e-07)
(0.00676989 -0.186128 0.982502)
(-0.617821 -0.786319 -2.12788e-07)
(0.00936117 -0.193704 0.981015)
(-0.617822 -0.786318 -0)
(0.00562855 -0.215493 0.976489)
(-0.617822 -0.786318 -0)
(0.0127109 -0.168161 0.985678)
(-0.704503 -0.709701 0)
(0.0276982 -0.119917 0.992397)
(-0.815119 -0.579293 0)
(0.0165015 -0.158361 0.987243)
(-0.742109 -0.670279 0)
(0.0132715 -0.154012 0.98798)
(-0.773369 -0.633957 0)
(0.0214579 -0.140036 0.989914)
(-0.795353 -0.606146 0)
(0.0200901 -0.133234 0.990881)
(-0.808871 -0.587986 0)
(0.0245834 -0.114127 0.993162)
(-0.815342 -0.57898 0)
(0.0278203 -0.145399 0.988982)
(0.982338 -0.187113 0)
(0.0177521 -0.184573 0.982659)
(0.982338 -0.187113 0)
(0.0210803 -0.211242 0.977206)
(0.917116 -0.398621 0)
(0.0220937 -0.222157 0.97476)
(0.884067 -0.467361 0)
(0.0183011 -0.229845 0.973055)
(0.837044 -0.547136 0)
(0.0174168 -0.238559 0.970972)
(0.775105 -0.631832 0)
(0.0235327 -0.251453 0.967583)
(0.70214 -0.712039 0)
(0.0784479 -0.320433 0.944017)
(0.628302 -0.77797 0)
(0.0160597 -0.257236 0.966215)
(0.54662 -0.837381 0)
(0.00983639 -0.266522 0.963779)
(0.678281 -0.734803 0)
(0.00751653 -0.287776 0.957668)
(0.678279 -0.734804 0)
(0 0 1)
(0.915363 0.402629 0)
(0 0 1)
(-0.526402 -0.850236 0)
(0 0 1)
(0.845022 0.534731 0)
(0 0 1)
(0.73349 0.6797 0)
(0 0 1)
(-0.471515 -0.881858 0)
(0.573737 0.819039 0)
(0.0162722 -0.0554706 -0.998328)
(0.999895 -0.0144948 0)
(0.0162919 -0.0779765 -0.996822)
(0.982338 -0.187113 0)
(0.0319859 -0.110691 -0.99334)
(0.982339 -0.187112 0)
(0.0290037 -0.0393027 -0.998806)
(0.999117 0.0420229 0)
(0.0266753 -0.0823266 -0.996248)
(-0.765705 -0.643192 0)
(0.00330735 -0.0243196 -0.999699)
(0.992364 0.123347 0)
(0.00555432 -0.0075357 -0.999956)
(0.967392 0.253285 0)
(0.00092864 -0.00924753 -0.999957)
(-0.574524 -0.818488 -0)
(0.0225547 -0.00279821 -0.999742)
(-0.616204 -0.787587 -0)
(-0.0582062 -0.120691 -0.990982)
(-0.651788 -0.758401 -0)
(0.0168888 -0.0579579 -0.998176)
(-0.682505 -0.73088 0)
(0.0342293 -0.117539 -0.992478)
(-0.765705 -0.643192 0)
(0.0351042 -0.126138 -0.991391)
(0.982339 -0.187111 0)
(0.0397501 -0.133646 -0.990232)
(-0.765705 -0.643192 0)
(0.0245834 -0.114127 -0.993162)
(-0.815342 -0.57898 -0)
(0.0276982 -0.119917 -0.992397)
(-0.815119 -0.579293 -0)
(0.0248374 -0.129834 -0.991225)
(-0.808871 -0.587986 -0)
(0.00936117 -0.193704 -0.981015)
(-0.617822 -0.786318 -0)
(0.0214579 -0.140036 -0.989914)
(-0.795353 -0.606146 -0)
(0.0132715 -0.154012 -0.98798)
(-0.773369 -0.633957 -0)
(0.0165015 -0.158361 -0.987243)
(-0.742109 -0.670279 -0)
(0.0127109 -0.168161 -0.985678)
(-0.704503 -0.709701 0)
(0.0128034 -0.173559 -0.98474)
(-0.664311 -0.747457 2.02272e-07)
(0.0110641 -0.18085 -0.983448)
(-0.617821 -0.786319 2.12788e-07)
(0.00759224 -0.21311 -0.976999)
(-0.617822 -0.786318 -0)
(0.0177521 -0.184573 -0.982659)
(0.982338 -0.187113 0)
(0.0210803 -0.211242 -0.977206)
(0.917116 -0.398621 0)
(0.0220937 -0.222157 -0.97476)
(0.884067 -0.467361 0)
(0.0183011 -0.229845 -0.973055)
(0.837044 -0.547136 0)
(0.0174168 -0.238559 -0.970972)
(0.775105 -0.631832 0)
(0.0235327 -0.251453 -0.967583)
(0.70214 -0.712039 0)
(0.0784479 -0.320433 -0.944017)
(0.628302 -0.77797 0)
(0.00751653 -0.287776 -0.957668)
(0.678279 -0.734804 0)
(0.0278203 -0.145399 -0.988982)
(0.982338 -0.187113 0)
(0.00983639 -0.266522 -0.963779)
(0.678281 -0.734803 0)
(0.0160597 -0.257236 -0.966215)
(0.54662 -0.837381 0)
(-0.999747 0.0225016 0)
(0 -0 -1)
(-0.999747 0.0225016 0)
(0 0 1)
(-0.99929 -0.0376791 -0)
(0 0 -1)
(-0.99929 -0.0376791 0)
(0 0 1)
(-0.994095 -0.108511 -0)
(0 0 -1)
(-0.994095 -0.108511 0)
(0 0 1)
(-0.981554 -0.191186 -0)
(0 0 -1)
(-0.981554 -0.191186 0)
(0 0 1)
(-0.958347 -0.285607 -0)
(0 0 -1)
(-0.958347 -0.285607 0)
(0 0 1)
(-0.921104 -0.389318 -0)
(0 0 -1)
(-0.921104 -0.389318 0)
(0 0 1)
(-0.868021 -0.496527 -0)
(0 0 -1)
(-0.868021 -0.496527 0)
(0 0 1)
(-0.801135 -0.598484 -0)
(0 0 -1)
(-0.801135 -0.598484 0)
(0 0 1)
(0.894948 -0.446171 0)
(0 0 -1)
(0.894948 -0.446171 0)
(0 0 1)
(0.934594 -0.355718 0)
(0 0 -1)
(0.934594 -0.355718 0)
(0 0 1)
(0.962819 -0.270148 0)
(0 0 -1)
(0.962819 -0.270148 0)
(0 0 1)
(0.981373 -0.192111 0)
(0 0 -1)
(0.981373 -0.192111 0)
(0 0 1)
(0.992443 -0.122708 0)
(0 0 -1)
(0.992443 -0.122708 0)
(0 0 1)
(0.998078 -0.0619749 0)
(0 0 -1)
(0.998078 -0.0619749 0)
(0 0 1)
(0.999957 -0.00925582 0)
(0 0 -1)
(0.999957 -0.00925582 0)
(0 0 1)
(0.999337 0.0364054 0)
(0 0 -1)
(0.999337 0.0364054 0)
(0 0 1)
(-0.526402 -0.850236 -0)
(0 0 -1)
(-0.471515 -0.881858 -0)
(-0 -0 -1)
(0.573737 0.819039 -0)
(0.73349 0.6797 0)
(0 0 -1)
(0.845022 0.534731 0)
(0 0 -1)
(0.915363 0.402629 0)
(0 -0 -1)
(0.00555435 0.00753568 -0.999956)
(0.967392 -0.253285 0)
(0.00330745 0.0243197 -0.999699)
(0.992364 -0.123347 0)
(0.0290039 0.0393027 -0.998806)
(0.999117 -0.0420228 0)
(0.0162722 0.0554707 -0.998328)
(0.999895 0.0144948 0)
(0.0162919 0.0779765 -0.996822)
(0.982338 0.187113 -0)
(0.0319859 0.110691 -0.99334)
(0.982339 0.187112 -0)
(0.0168888 0.0579579 -0.998176)
(-0.682506 0.73088 0)
(0.0266753 0.0823267 -0.996248)
(-0.765705 0.643192 0)
(0.0342293 0.117539 -0.992478)
(-0.765705 0.643192 0)
(-0.0582079 0.120693 -0.990982)
(-0.651788 0.758401 0)
(0.0225547 0.00279828 -0.999742)
(-0.616204 0.787587 0)
(0.000928632 0.00924754 -0.999957)
(-0.574524 0.818488 0)
(0.0408433 0.132741 -0.990309)
(-0.765705 0.643192 0)
(0.0351041 0.126138 -0.991391)
(0.982339 0.187111 -0)
(0.0128033 0.173559 -0.98474)
(-0.66431 0.747457 0)
(0.0067698 0.186128 -0.982502)
(-0.617822 0.786318 0)
(0.00936119 0.193704 -0.981015)
(-0.617822 0.786318 0)
(0.00562852 0.215493 -0.976489)
(-0.617822 0.786318 0)
(0.0127108 0.168161 -0.985678)
(-0.704504 0.709701 0)
(0.0276981 0.119917 -0.992398)
(-0.81512 0.579293 0)
(0.0165022 0.15836 -0.987243)
(-0.742109 0.670279 0)
(0.0132722 0.154011 -0.98798)
(-0.773368 0.633957 0)
(0.021458 0.140036 -0.989914)
(-0.795353 0.606147 0)
(0.0200901 0.133234 -0.990881)
(-0.808872 0.587985 0)
(0.0245835 0.114128 -0.993162)
(-0.815341 0.578981 0)
(0.0278204 0.145399 -0.988982)
(0.982338 0.187113 -0)
(0.017752 0.184573 -0.982659)
(0.982338 0.187113 0)
(0.0210802 0.211242 -0.977206)
(0.917116 0.398621 -0)
(0.0220936 0.222158 -0.97476)
(0.884066 0.467361 0)
(0.0183011 0.229845 -0.973055)
(0.837044 0.547136 0)
(0.0174174 0.238559 -0.970972)
(0.775106 0.631831 0)
(0.0235345 0.251456 -0.967583)
(0.702139 0.71204 0)
(0.0784483 0.320434 -0.944017)
(0.628301 0.77797 -0)
(0.0160597 0.257236 -0.966215)
(0.54662 0.837381 0)
(0.00983645 0.266522 -0.963779)
(0.678281 0.734802 0)
(0.00751652 0.287776 -0.957668)
(0.678279 0.734804 0)
(0 0 -1)
(-0.999747 -0.0225017 0)
(0 0 -1)
(-0.99929 0.0376791 0)
(0 0 -1)
(-0.994095 0.108511 0)
(0 0 -1)
(-0.981554 0.191186 0)
(0 0 -1)
(-0.958347 0.285607 0)
(0 0 -1)
(-0.921103 0.389318 0)
(0 0 -1)
(-0.868021 0.496527 0)
(0 0 -1)
(-0.801134 0.598485 0)
(0 0 -1)
(0.999957 0.00925582 0)
(0 0 -1)
(0.999337 -0.0364054 0)
(-0 -0 -1)
(0.894948 0.446171 0)
(0 0 -1)
(0.934593 0.355718 0)
(0 0 -1)
(0.962819 0.270148 0)
(-0 -0 -1)
(0.981373 0.192111 0)
(0 0 -1)
(0.992443 0.122708 0)
(0 0 -1)
(0.998078 0.0619749 0)
(0 0 -1)
(0.915363 -0.40263 0)
(-0 0 -1)
(-0.526402 0.850236 0)
(0 0 -1)
(0.845022 -0.534731 0)
(0 0 -1)
(0.73349 -0.6797 0)
(-0 0 -1)
(-0.471516 0.881857 0)
(0.57374 -0.819037 0)
(0.0162722 0.0554707 0.998328)
(0.999895 0.0144948 0)
(0.0162919 0.0779765 0.996822)
(0.982338 0.187113 0)
(0.0319859 0.110691 0.99334)
(0.982339 0.187112 -0)
(0.0290039 0.0393027 0.998806)
(0.999117 -0.0420228 0)
(0.0266753 0.0823267 0.996248)
(-0.765705 0.643192 0)
(0.00330745 0.0243197 0.999699)
(0.992364 -0.123347 0)
(0.00555435 0.00753568 0.999956)
(0.967392 -0.253285 0)
(0.000928632 0.00924754 0.999957)
(-0.574524 0.818488 0)
(0.0225547 0.00279828 0.999742)
(-0.616204 0.787587 0)
(-0.0582079 0.120693 0.990982)
(-0.651788 0.758401 0)
(0.0168888 0.0579579 0.998176)
(-0.682506 0.73088 0)
(0.0342293 0.117539 0.992478)
(-0.765705 0.643192 0)
(0.0351041 0.126138 0.991391)
(0.982339 0.187111 -0)
(0.0397501 0.133646 0.990232)
(-0.765705 0.643192 0)
(0.0245835 0.114128 0.993162)
(-0.815341 0.578981 0)
(0.0276981 0.119917 0.992398)
(-0.81512 0.579293 0)
(0.0248374 0.129834 0.991225)
(-0.808872 0.587985 0)
(0.00936119 0.193704 0.981015)
(-0.617822 0.786318 0)
(0.021458 0.140036 0.989914)
(-0.795353 0.606147 0)
(0.0132722 0.154011 0.98798)
(-0.773368 0.633957 0)
(0.0165022 0.15836 0.987243)
(-0.742109 0.670279 0)
(0.0127108 0.168161 0.985678)
(-0.704504 0.709701 0)
(0.0128033 0.173559 0.98474)
(-0.66431 0.747457 0)
(0.0110641 0.18085 0.983449)
(-0.617822 0.786318 0)
(0.00759228 0.21311 0.976999)
(-0.617822 0.786318 0)
(0.017752 0.184573 0.982659)
(0.982338 0.187113 -0)
(0.0210802 0.211242 0.977206)
(0.917116 0.398621 0)
(0.0220936 0.222158 0.97476)
(0.884066 0.467361 0)
(0.0183011 0.229845 0.973055)
(0.837044 0.547136 -0)
(0.0174174 0.238559 0.970972)
(0.775106 0.631831 -0)
(0.0235345 0.251456 0.967583)
(0.702139 0.71204 -0)
(0.0784483 0.320434 0.944017)
(0.628301 0.77797 -0)
(0.00751652 0.287776 0.957668)
(0.678279 0.734804 0)
(0.0278204 0.145399 0.988982)
(0.982338 0.187113 -0)
(0.00983645 0.266522 0.963779)
(0.678281 0.734802 -0)
(0.0160597 0.257236 0.966215)
(0.54662 0.837381 -0)
(-0.999747 -0.0225017 -0)
(0 -0 1)
(-0.99929 0.0376791 0)
(0 0 1)
(-0.994095 0.108511 0)
(0 0 1)
(-0.981554 0.191186 0)
(0 0 1)
(-0.958347 0.285607 0)
(0 0 1)
(-0.921103 0.389318 0)
(0 0 1)
(-0.868021 0.496527 0)
(0 0 1)
(-0.801134 0.598485 0)
(0 0 1)
(0.894948 0.446171 0)
(0 0 1)
(0.934593 0.355718 -0)
(0 0 1)
(0.962819 0.270148 -0)
(0 0 1)
(0.981373 0.192111 -0)
(0 0 1)
(0.992443 0.122708 -0)
(0 0 1)
(0.998078 0.0619749 -0)
(0 0 1)
(0.999957 0.00925582 -0)
(0 0 1)
(0.999337 -0.0364054 0)
(0 0 1)
(-0.526402 0.850236 0)
(0 0 1)
(-0.471516 0.881857 0)
(0 -0 1)
(0.57374 -0.819037 0)
(0.73349 -0.6797 0)
(-0 0 1)
(0.845022 -0.534731 0)
(0 0 1)
(0.915363 -0.40263 0)
(0 -0 1)
)

// normal volume types

460
(
0
0
0
0
0
0
0
0
0
0
0
0
0
0
0
0
0
0
0
0
0
0
0
0
0
0
0
0
0
0
0
0
0
0
0
0
0
0
0
0
0
0
0
0
0
0
0
0
0
0
0
0
0
0
0
0
0
0
0
0
0
0
0
0
0
0
0
0
0
0
0
0
0
0
0
0
0
0
0
0
0
0
0
0
0
0
0
0
0
0
0
0
0
0
0
0
0
0
0
0
0
0
0
0
0
0
0
0
0
0
0
0
0
0
0
0
0
0
0
0
0
0
0
0
0
0
0
0
0
0
0
0
0
0
0
0
0
0
0
0
0
0
0
0
0
0
0
0
0
0
0
0
0
0
0
0
0
0
0
0
0
0
0
0
0
0
0
0
0
0
0
0
0
0
0
0
0
0
0
0
0
0
0
0
0
0
0
0
0
0
0
0
0
0
0
0
0
0
0
0
0
0
0
0
0
0
0
0
0
0
0
0
0
0
0
0
0
0
0
0
0
0
0
0
0
0
0
0
0
0
0
0
0
0
0
0
0
0
0
0
0
0
0
0
0
0
0
0
0
0
0
0
0
0
0
0
0
0
0
0
0
0
0
0
0
0
0
0
0
0
0
0
0
0
0
0
0
0
0
0
0
0
0
0
0
0
0
0
0
0
0
0
0
0
0
0
0
0
0
0
0
0
0
0
0
0
0
0
0
0
0
0
0
0
0
0
0
0
0
0
0
0
0
0
0
0
0
0
0
0
0
0
0
0
0
0
0
0
0
0
0
0
0
0
0
0
0
0
0
0
0
0
0
0
0
0
0
0
0
0
0
0
0
0
0
0
0
0
0
0
0
0
0
0
0
0
0
0
0
0
0
0
0
0
0
0
0
0
0
0
0
0
0
0
0
0
0
0
0
0
0
0
0
0
0
0
0
0
0
0
0
0
0
0
0
0
0
0
0
0
0
0
0
0
0
0
0
0
0
0
0
0
0
0
0
0
0
0
0
0
0
0
0
0
0
0
0
0
0
0
0
0
0
0
0
0
0
0
0
0
)

// normalDirections

234
(
2(1 -1)
2(1 -1)
2(1 -1)
2(1 -1)
2(1 -1)
2(1 -1)
2(1 -1)
2(1 -1)
2(1 -1)
2(1 -1)
2(1 -1)
2(1 -1)
2(1 -1)
2(1 -1)
2(1 -1)
2(1 -1)
2(1 -1)
2(1 -1)
2(1 -1)
2(1 -1)
2(1 -1)
2(1 -1)
2(1 -1)
2(1 -1)
2(1 -1)
2(1 -1)
2(1 -1)
2(1 -1)
2(1 -1)
2(1 -1)
2(1 -1)
2(1 -1)
2(1 -1)
2(1 -1)
2(1 -1)
2(1 -1)
2(1 -1)
2(1 -1)
2(1 -1)
2(1 -1)
2(1 -1)
2(1 -1)
2(1 -1)
2(1 -1)
2(1 -1)
2(1 -1)
2(1 -1)
2(1 -1)
2(1 -1)
2(1 -1)
2(1 -1)
2(1 -1)
2(1 -1)
2(1 -1)
2(1 -1)
2(1 -1)
2(1 -1)
2(1 -1)
2(1 -1)
2(1 -1)
2(1 -1)
2(1 -1)
2(1 -1)
2(1 -1)
2(1 -1)
2(1 -1)
2(1 -1)
2(1 -1)
2(1 -1)
2(1 -1)
2(1 -1)
2(1 -1)
2(1 -1)
2(1 -1)
2(1 -1)
2(1 -1)
2(1 -1)
2(1 -1)
2(1 -1)
2(1 -1)
2(1 -1)
2(1 -1)
2(1 -1)
2(1 -1)
2(1 -1)
2(1 -1)
2(1 -1)
2(1 -1)
2(1 -1)
2(1 -1)
2(1 -1)
2(1 -1)
2(1 -1)
2(1 -1)
2(1 -1)
2(1 -1)
2(1 -1)
2(1 -1)
2(1 -1)
2(1 -1)
2(1 -1)
2(1 -1)
2(1 -1)
2(1 -1)
2(1 -1)
2(1 -1)
2(1 -1)
2(1 -1)
2(1 -1)
2(1 -1)
2(1 -1)
2(1 -1)
2(1 -1)
2(1 -1)
2(1 -1)
2(1 -1)
2(1 -1)
2(1 -1)
2(1 -1)
2(1 -1)
2(1 -1)
2(1 -1)
2(1 -1)
2(1 -1)
2(1 -1)
2(1 -1)
2(1 -1)
2(1 -1)
2(1 -1)
2(1 -1)
2(1 -1)
2(1 -1)
2(1 -1)
2(1 -1)
2(1 -1)
2(1 -1)
2(1 -1)
2(1 -1)
2(1 -1)
2(1 -1)
2(1 -1)
2(1 -1)
2(1 -1)
2(1 -1)
2(1 -1)
2(1 -1)
2(1 -1)
2(1 -1)
2(1 -1)
2(1 -1)
2(1 -1)
2(1 -1)
2(1 -1)
2(1 -1)
2(1 -1)
2(1 -1)
2(1 -1)
2(1 -1)
2(1 -1)
2(1 -1)
2(1 -1)
2(1 -1)
2(1 -1)
2(1 -1)
2(1 -1)
2(1 -1)
2(1 -1)
2(1 -1)
2(1 -1)
2(1 -1)
2(1 -1)
2(1 -1)
2(1 -1)
2(1 -1)
2(1 -1)
2(1 -1)
2(1 -1)
2(1 -1)
2(1 -1)
2(1 -1)
2(1 -1)
2(1 -1)
2(1 -1)
2(1 -1)
2(1 -1)
2(1 -1)
2(1 -1)
2(1 -1)
2(1 -1)
2(1 -1)
2(1 -1)
2(1 -1)
2(1 -1)
2(1 -1)
2(1 -1)
2(1 -1)
2(1 -1)
2(1 -1)
2(1 -1)
2(1 -1)
2(1 -1)
2(1 -1)
2(1 -1)
2(1 -1)
2(1 -1)
2(1 -1)
2(1 -1)
2(1 -1)
2(1 -1)
2(1 -1)
2(1 -1)
2(1 -1)
2(1 -1)
2(1 -1)
2(1 -1)
2(1 -1)
2(1 -1)
2(1 -1)
2(1 -1)
2(1 -1)
2(1 -1)
2(1 -1)
2(1 -1)
2(1 -1)
2(1 -1)
2(1 -1)
2(1 -1)
2(1 -1)
2(1 -1)
2(1 -1)
2(1 -1)
2(1 -1)
2(1 -1)
2(1 -1)
)

// edgeNormals

234
(
2(0 1)
2(2 3)
2(4 5)
2(6 7)
2(8 9)
2(10 11)
2(12 13)
2(14 15)
2(16 17)
2(18 19)
2(20 21)
2(22 23)
2(24 25)
2(26 27)
2(28 29)
2(30 31)
2(32 33)
2(34 35)
2(36 37)
2(38 39)
2(40 41)
2(42 43)
2(44 45)
2(46 47)
2(48 49)
2(50 51)
2(52 53)
2(54 55)
2(56 57)
2(58 59)
2(60 61)
2(62 63)
2(64 65)
2(66 67)
2(68 69)
2(70 71)
2(72 73)
2(74 75)
2(76 77)
2(78 79)
2(80 81)
2(80 82)
2(83 84)
2(85 86)
2(87 88)
2(89 90)
2(91 92)
2(93 94)
2(95 96)
2(97 98)
2(99 100)
2(101 102)
2(103 104)
2(105 106)
2(107 108)
2(109 110)
2(111 112)
2(113 114)
2(115 116)
2(117 118)
2(119 120)
2(121 122)
2(123 124)
2(125 126)
2(127 128)
2(129 130)
2(131 132)
2(133 134)
2(135 136)
2(137 138)
2(139 140)
2(141 142)
2(143 144)
2(145 146)
2(147 148)
2(149 150)
2(151 152)
2(153 154)
2(155 156)
2(157 158)
2(159 160)
2(161 162)
2(163 164)
2(165 166)
2(167 168)
2(169 170)
2(171 172)
2(173 174)
2(175 176)
2(177 178)
2(179 180)
2(181 182)
2(183 184)
2(185 186)
2(187 188)
2(189 190)
2(191 192)
2(193 194)
2(195 196)
2(197 198)
2(199 200)
2(201 202)
2(203 204)
2(205 206)
2(207 208)
2(209 210)
2(211 212)
2(213 214)
2(215 216)
2(217 218)
2(219 220)
2(221 222)
2(81 223)
2(223 222)
2(224 225)
2(226 227)
2(228 229)
2(230 231)
2(232 233)
2(234 235)
2(236 237)
2(238 239)
2(240 241)
2(242 243)
2(244 245)
2(246 247)
2(248 249)
2(250 251)
2(252 253)
2(254 255)
2(256 257)
2(258 259)
2(260 261)
2(262 263)
2(264 265)
2(266 267)
2(268 269)
2(270 271)
2(272 273)
2(274 275)
2(276 277)
2(278 279)
2(280 281)
2(282 283)
2(284 285)
2(286 287)
2(288 289)
2(290 291)
2(292 293)
2(294 295)
2(296 297)
2(298 299)
2(300 301)
2(302 303)
2(304 305)
2(306 307)
2(308 309)
2(310 311)
2(312 313)
2(314 315)
2(316 317)
2(318 319)
2(320 321)
2(322 323)
2(324 325)
2(326 327)
2(328 329)
2(330 331)
2(332 333)
2(334 335)
2(336 337)
2(338 339)
2(340 341)
2(342 343)
2(342 344)
2(345 346)
2(347 348)
2(349 350)
2(351 352)
2(353 354)
2(355 356)
2(357 358)
2(359 360)
2(361 362)
2(363 364)
2(365 366)
2(367 368)
2(369 370)
2(371 372)
2(373 374)
2(375 376)
2(377 378)
2(379 380)
2(381 382)
2(383 384)
2(385 386)
2(387 388)
2(389 390)
2(391 392)
2(393 394)
2(395 396)
2(397 398)
2(399 400)
2(401 402)
2(403 404)
2(405 406)
2(407 408)
2(409 410)
2(411 412)
2(413 414)
2(415 416)
2(417 418)
2(419 420)
2(421 422)
2(423 424)
2(425 426)
2(427 428)
2(429 430)
2(431 432)
2(433 434)
2(435 436)
2(437 438)
2(439 440)
2(441 442)
2(443 444)
2(445 446)
2(447 448)
2(449 450)
2(451 452)
2(343 453)
2(453 452)
2(454 455)
2(456 457)
2(458 459)
)

// featurePointNormals

4
(
3(80 81 82)
3(221 222 223)
3(342 343 344)
3(451 452 453)
)

// featurePointEdges

4
(
3(40 112 41)
3(112 113 111)
3(173 229 174)
3(229 230 228)
)

// regionEdges
0()


// ************************************************************************* //
