/*--------------------------------*- C++ -*----------------------------------*\
| =========                 |                                                 |
| \\      /  F ield         | OpenFOAM: The Open Source CFD Toolbox           |
|  \\    /   O peration     | Version:  v1806                                 |
|   \\  /    A nd           | Web:      www.OpenFOAM.com                      |
|    \\/     M anipulation  |                                                 |
\*---------------------------------------------------------------------------*/
FoamFile
{
    version     2.0;
    format      ascii;
    class       extendedFeatureEdgeMesh;
    location    "constant/extendedFeatureEdgeMesh";
    object      flange.extendedFeatureEdgeMesh;
}
// * * * * * * * * * * * * * * * * * * * * * * * * * * * * * * * * * * * * * //

// points

18
(
(159.559 -644.432 -33.3997)
(159.621 -644.404 -32.8268)
(159.621 -644.403 -32.7989)
(165.674 -732.437 -25.0242)
(165.441 -732.502 -25.6841)
(165.265 -732.467 -26.3542)
(165.262 -732.465 -26.3719)
(161.816 -697.303 -24.6118)
(164.635 -710.584 -25.3719)
(165.674 242.169 -30.9556)
(165.441 242.234 -30.2957)
(165.265 242.199 -29.6256)
(165.262 242.197 -29.6079)
(161.816 207.035 -31.368)
(164.635 220.316 -30.6079)
(159.559 154.165 -22.5801)
(159.621 154.136 -23.153)
(159.621 154.135 -23.1809)
)

// edges

16
(
(0 1)
(1 2)
(3 4)
(4 5)
(5 6)
(7 8)
(9 10)
(10 11)
(11 12)
(13 14)
(15 16)
(16 17)
(0 2)
(3 6)
(9 12)
(15 17)
)

// concaveStart mixedStart nonFeatureStart
0 0 0
// internalStart flatStart openStart multipleStart
12 16 16 16
// normals

24
(
(0.186184 -0.982088 0.0289497)
(0.97569 -0.197202 -0.095607)
(0.981249 -0.192745 0)
(-0.416959 -0.878549 0.233017)
(-0.834272 0.493898 0.245062)
(-0.450472 -0.889928 0.0714308)
(-0.512267 -0.858822 0.00258936)
(-0.834548 0.493384 0.245158)
(0.939419 0.214727 -0.26718)
(0.939687 0.182952 0.288992)
(-0.417188 0.878423 -0.233084)
(-0.834215 -0.494009 -0.24503)
(-0.450442 0.889941 -0.0714628)
(-0.512267 0.858822 -0.00258936)
(-0.834582 -0.493326 -0.245158)
(0.939422 -0.214727 0.267169)
(0.939685 -0.182951 -0.288999)
(0.191996 0.980986 -0.0283446)
(0.974974 0.200845 0.0953312)
(0.980581 0.196116 0)
(0.993941 -0.0444072 -0.100542)
(-0.513714 -0.840119 0.174064)
(-0.513713 0.840115 -0.174082)
(0.993942 0.0444082 0.100539)
)

// normal volume types

24
(
0
0
0
0
0
0
0
0
0
0
0
0
0
0
0
0
0
0
0
0
0
0
0
0
)

// normalDirections

16
(
2(1 -1)
2(1 -1)
2(1 -1)
2(1 -1)
2(1 -1)
2(1 -1)
2(1 -1)
2(1 -1)
2(1 -1)
2(1 -1)
2(1 -1)
2(1 -1)
2(1 -1)
2(1 -1)
2(1 -1)
2(1 -1)
)

// edgeNormals

16
(
2(0 1)
2(0 2)
2(3 4)
2(5 4)
2(6 7)
2(8 9)
2(10 11)
2(12 11)
2(13 14)
2(15 16)
2(17 18)
2(17 19)
2(20 0)
2(7 21)
2(14 22)
2(23 17)
)

// featurePointNormals
0()
// featurePointEdges
0()
// regionEdges
0()


// ************************************************************************* //
